89

C 18.66399 -14.62600 19.40799
C 17.82756 -15.83851 19.61708
N 16.81531 -16.18660 18.73213
C 17.87995 -16.79946 20.61440
C 16.27380 -17.33030 19.20246
N 16.89270 -17.72101 20.33578
C 19.90299 -12.06600 14.11600
C 18.77779 -12.93913 14.55115
N 17.67926 -13.23247 13.75531
C 18.54443 -13.61164 15.73886
C 16.83564 -14.04321 14.44739
N 17.33772 -14.29445 15.66181
C 22.31499 -16.81800 16.60300
C 20.95210 -17.36239 16.89276
N 20.71749 -18.39196 17.80307
C 19.73471 -16.97676 16.35182
C 19.39880 -18.61474 17.81248
N 18.78099 -17.78782 16.93753
C 22.36499 -22.75599 19.42699
C 21.14752 -22.14292 20.03610
N 20.86801 -20.78304 19.95438
C 20.13394 -22.74074 20.77306
C 19.72478 -20.58326 20.64076
N 19.25496 -21.74360 21.13994
C 25.17499 -17.74300 19.69299
C 24.94123 -18.68488 18.55202
N 23.73557 -19.35313 18.32758
C 25.82348 -19.06291 17.55114
C 23.89004 -20.10286 17.23046
N 25.14197 -19.95176 16.73901
C 22.27199 -17.60200 22.98299
C 22.38738 -18.28879 21.64055
O 21.69611 -17.77664 20.66581
O 23.09186 -19.31690 21.48894
C 11.31100 -16.99500 17.93999
C 12.58061 -16.76390 17.20264
N 12.89603 -17.34968 15.98537
C 13.68566 -15.99567 17.52248
C 14.14299 -16.93883 15.61322
N 14.64879 -16.11556 16.53323
C 14.92800 -20.55299 22.57099
C 16.39765 -20.78715 22.21814
O 16.89410 -21.94258 22.36173
O 17.06679 -19.78889 21.78403
Cu 16.49900 -15.39942 16.98528
Zn 21.95657 -19.20669 19.29164
H 23.27567 -22.19922 19.73176
H 22.32380 -22.73394 18.31664
H 22.47644 -23.81079 19.74055
H 20.40364 -12.46409 13.20873
H 20.65787 -11.99370 14.92081
H 19.55511 -11.03829 13.88112
H 11.17302 -18.06739 18.19337
H 10.42537 -16.67788 17.34997
H 11.31539 -16.41940 18.88384
H 19.39861 -14.79753 18.59114
H 19.23441 -14.36803 20.32010
H 18.03729 -13.75782 19.11841
H 22.25131 -15.93213 15.94425
H 22.95801 -17.57586 16.10895
H 22.82733 -16.52404 17.54195
H 24.37255 -16.97791 19.73577
H 26.15256 -17.23807 19.58788
H 25.13482 -18.28755 20.65680
H 22.35277 -16.50370 22.86581
H 23.03826 -17.97141 23.68824
H 21.26671 -17.81153 23.40409
H 18.54573 -16.90422 21.47662
H 15.43874 -17.86385 18.73524
H 19.16284 -13.64312 16.63997
H 15.88424 -14.42186 14.05961
H 19.46946 -16.20383 15.62473
H 18.87393 -19.34222 18.43994
H 19.98514 -23.78618 21.06168
H 19.23357 -19.62115 20.81364
H 26.86196 -18.77621 17.36115
H 23.12385 -20.74199 16.77957
H 13.85428 -15.38399 18.41551
H 14.63850 -17.26147 14.69080
H 18.31725 -21.84845 21.69426
H 25.51835 -20.42438 15.91418
H 17.76711 -17.69575 16.82010
H 16.75277 -18.61907 20.94986
H 17.52279 -12.88875 12.80475
H 12.29545 -17.98602 15.45552
H 14.84399 -19.69624 23.26922
H 14.46796 -21.45298 23.01907
H 14.37137 -20.27874 21.65054
Cu 13.999 -21.749 22.330
