89

C         18.80909      -15.36439       20.09594
C         18.07517      -15.91588       21.26672
N         17.21894      -17.00249       21.14377
C         18.09696      -15.53047       22.59781
C         16.73724      -17.25062       22.38025
N         17.24616      -16.37850       23.27496
C         20.43859      -18.42912       15.19226
C         19.35850      -18.66446       16.19017
N         18.40071      -19.66124       16.06671
C         19.04647      -18.01812       17.37434
C         17.56082      -19.60216       17.13398
N         17.93078      -18.60991       17.95167
C         22.97499      -18.27780       20.49586
C         21.64620      -18.51186       21.14185
N         21.40201      -18.27952       22.49467
C         20.47342      -18.97334       20.56305
C         20.12027      -18.58727       22.72073
N         19.53801      -19.02252       21.57944
C         23.25253      -18.79333       27.04524
C         21.91521      -18.15906       26.84934
N         21.79309      -16.82513       27.22321
C         20.65319      -18.61785       26.49627
C         20.48691      -16.51118       27.10774
N         19.77602      -17.56749       26.66601
C         25.50687      -15.64778       22.78843
C         25.50888      -17.12567       23.03222
N         24.41104      -17.83611       23.52271
C         26.54078      -18.03086       22.83515
C         24.77232      -19.12093       23.61412
N         26.05476      -19.27117       23.20861
C         22.21914      -13.21779       24.38762
C         22.56607      -14.68730       24.30197
O         21.95424      -15.37504       23.38385
O         23.38055      -15.21573       25.09800
C         11.95996      -18.93775       21.56364
C         13.28252      -19.25589       20.96479
N         13.80166      -20.53723       20.85056
C         14.25946      -18.43011       20.43822
C         15.03916      -20.45774       20.28094
N         15.34469      -19.18504       20.02231
C         15.30482      -16.17485       26.88966
C         16.82259      -16.36326       26.88189
O         17.40749      -16.73473       27.94114
O         17.44000      -16.13622       25.78645
Cu        17.04620      -18.15583       19.59097
Zn        22.52066      -17.21678       23.92090
H         24.05996      -18.11535       26.69796
H         23.34714      -19.73814       26.46779
H         23.42640      -19.02972       28.11165
H         21.08402      -19.32369       15.06805
H         21.07741      -17.58760       15.51867
H         20.02413      -18.17572       14.19407
H         11.89667      -19.27317       22.62040
H         11.12755      -19.42336       21.01200
H         11.79148      -17.84535       21.54191
H         19.65234      -16.03309       19.81648
H         19.23441      -14.36803       20.32010
H         18.14159      -15.28015       19.21408
H         22.90746      -18.41266       19.40040
H         23.74488      -18.97488       20.88736
H         23.33613      -17.24974       20.70373
H         24.63471      -15.35779       22.16687
H         26.43614      -15.33545       22.27799
H         25.40089      -15.09944       23.74508
H         22.20657      -12.76202       23.37835
H         22.92451      -12.67814       25.04508
H         21.19466      -13.11815       24.80275
H         18.65791      -14.74135       23.10799
H         16.02233      -18.04421       22.62398
H         19.54870      -17.16688       17.84187
H         16.70612      -20.26934       17.28652
H         20.22628      -19.25392       19.53513
H         19.59506      -18.49255       23.67656
H         20.32506      -19.60296       26.14945
H         20.02793      -15.55001       27.35741
H         27.56194      -17.88956       22.46907
H         24.13367      -19.94206       23.95575
H         14.25594      -17.33771       20.35612
H         15.67405      -21.32874       20.08404
H         18.70376      -17.54894       26.44809
H         26.57452      -20.15151       23.19301
H         18.54235      -19.23542       21.46302
H         17.11934      -16.31960       24.36291
H         18.33040      -20.32827       15.29449
H         13.33605      -21.39866       21.14638
H         15.05208      -15.16714       26.50334
H         14.88261      -16.30873       27.90268
H         14.84237      -16.91288       26.20138
Cu        14.53358      -17.11741       27.82151
